@<TRIPOS>MOLECULE

52 58 1
SMALL
USER_CHARGES
@<TRIPOS>ATOM
1	C1     0.3825    -4.8309     0.0000	C.2	1	noname	-0.0383
2	C2     1.0089    -6.2378     0.0000	C.2	1	noname	-0.0503
3	C3     0.1037    -7.4837     0.0000	C.2	1	noname	-0.0534
4	C4    -1.4278    -7.3227     0.0000	C.2	1	noname	-0.0368
5	C5    -2.0542    -5.9158     0.0000	C.2	1	noname	-0.0213
6	C6    -1.1490    -4.6699     0.0000	C.2	1	noname	-0.0570
7	C7    -3.5189    -5.4399     0.0000	C.2	1	noname	-0.0213
8	C8    -3.5189    -3.8999     0.0000	C.2	1	noname	-0.0570
9	N1    -2.0542    -3.4241     0.0000	N.3	1	noname	0.0319
10	C9    -4.8525    -6.2099     0.0000	C.2	1	noname	-0.0368
11	C10    -6.1862    -5.4399     0.0000	C.2	1	noname	-0.0534
12	C11    -6.1862    -3.8999     0.0000	C.2	1	noname	-0.0503
13	C12    -4.8525    -3.1299     0.0000	C.2	1	noname	-0.0383
14	C13    -1.5783    -1.9594     0.0000	C.2	1	noname	0.0004
15	C14    -0.6266     0.9698     0.0000	C.2	1	noname	-0.0588
16	C15     0.4039    -0.1746     0.0000	C.2	1	noname	-0.0496
17	C16    -0.0720    -1.6393     0.0000	C.2	1	noname	-0.0426
18	C17    -2.6088    -0.8150     0.0000	C.2	1	noname	-0.0160
19	C18    -2.1329     0.6496     0.0000	C.2	1	noname	-0.0589
20	C19    -4.1488    -0.8150     0.0000	C.2	1	noname	-0.0180
21	C20    -4.6247     0.6496     0.0000	C.2	1	noname	-0.0564
22	N2    -3.3788     1.5548     0.0000	N.3	1	noname	0.0282
23	C21    -5.1793    -1.9594     0.0000	C.2	1	noname	-0.0354
24	C22    -6.6856    -1.6393     0.0000	C.2	1	noname	-0.0532
25	C23    -7.1615    -0.1746     0.0000	C.2	1	noname	-0.0503
26	C24    -6.1310     0.9698     0.0000	C.2	1	noname	-0.0382
27	C25    -3.3788     3.0948     0.0000	C.2	1	noname	-0.0234
28	C26    -3.3788     6.1748     0.0000	C.2	1	noname	-0.0814
29	C27    -4.7125     5.4048     0.0000	C.2	1	noname	-0.0614
30	C28    -4.7125     3.8648     0.0000	C.2	1	noname	-0.0511
31	C29    -2.0451     3.8648     0.0000	C.2	1	noname	-0.0511
32	C30    -2.0451     5.4048     0.0000	C.2	1	noname	-0.0614
33	H1     1.0232    -3.9491     0.0000	H	1	noname	0.0642
34	H2     2.0929    -6.3517     0.0000	H	1	noname	0.0623
35	H3     0.5471    -8.4794     0.0000	H	1	noname	0.0622
36	H4    -2.0685    -8.2045     0.0000	H	1	noname	0.0629
37	H5    -4.8525    -7.2999     0.0000	H	1	noname	0.0629
38	H6    -7.1302    -5.9849     0.0000	H	1	noname	0.0622
39	H7    -7.1302    -3.3549     0.0000	H	1	noname	0.0623
40	H8    -4.8525    -2.0399     0.0000	H	1	noname	0.0642
41	H9    -0.2897     2.0065     0.0000	H	1	noname	0.0642
42	H10     1.4701     0.0520     0.0000	H	1	noname	0.0623
43	H11     0.6574    -2.4493     0.0000	H	1	noname	0.0642
44	H12    -4.8424    -2.9961     0.0000	H	1	noname	0.0629
45	H13    -7.4150    -2.4493     0.0000	H	1	noname	0.0622
46	H14    -8.2277     0.0520     0.0000	H	1	noname	0.0623
47	H15    -6.4679     2.0065     0.0000	H	1	noname	0.0642
48	H16    -3.3788     7.2648     0.0000	H	1	noname	0.0622
49	H17    -5.6564     5.9498     0.0000	H	1	noname	0.0623
50	H18    -5.6564     3.3198     0.0000	H	1	noname	0.0642
51	H19    -1.1012     3.3198     0.0000	H	1	noname	0.0642
52	H20    -1.1012     5.9498     0.0000	H	1	noname	0.0623
@<TRIPOS>BOND
1	1	2	2
2	2	3	1
3	3	4	2
4	4	5	1
5	5	6	2
6	1	6	1
7	8	9	1
8	5	7	1
9	6	9	1
10	10	11	1
11	11	12	2
12	12	13	1
13	7	10	2
14	8	13	2
15	8	7	1
16	9	14	1
17	15	16	2
18	16	17	1
19	18	19	2
20	15	19	1
21	17	14	2
22	14	18	1
23	21	22	1
24	18	20	1
25	19	22	1
26	23	24	1
27	24	25	2
28	25	26	1
29	20	23	2
30	21	26	2
31	21	20	1
32	22	27	1
33	28	29	1
34	29	30	2
35	31	32	1
36	28	32	2
37	30	27	1
38	27	31	2
39	1	33	1
40	2	34	1
41	3	35	1
42	4	36	1
43	10	37	1
44	11	38	1
45	12	39	1
46	13	40	1
47	15	41	1
48	16	42	1
49	17	43	1
50	23	44	1
51	24	45	1
52	25	46	1
53	26	47	1
54	28	48	1
55	29	49	1
56	30	50	1
57	31	51	1
58	32	52	1
@<TRIPOS>SUBSTRUCTURE
1	noname	1
