
  MJ221101                      

 52 58  0  0  0  0  0  0  0  0999 V2000
   -3.5268   -0.0231    0.0000 C   0  0  0  0  0  0  0  0  0  0  0  0
   -4.2412   -0.4356    0.0000 C   0  0  0  0  0  0  0  0  0  0  0  0
   -4.2412   -1.2607    0.0000 C   0  0  0  0  0  0  0  0  0  0  0  0
   -3.5268   -1.6732    0.0000 C   0  0  0  0  0  0  0  0  0  0  0  0
   -2.8123   -1.2607    0.0000 C   0  0  0  0  0  0  0  0  0  0  0  0
   -2.8123   -0.4356    0.0000 C   0  0  0  0  0  0  0  0  0  0  0  0
   -2.0277   -1.5157    0.0000 C   0  0  0  0  0  0  0  0  0  0  0  0
   -1.5428   -0.8483    0.0000 C   0  0  0  0  0  0  0  0  0  0  0  0
   -2.0276   -0.1809    0.0000 N   0  0  0  0  0  0  0  0  0  0  0  0
   -1.6922   -2.2695    0.0000 C   0  0  0  0  0  0  0  0  0  0  0  0
   -0.8718   -2.3559    0.0000 C   0  0  0  0  0  0  0  0  0  0  0  0
   -0.3868   -1.6885    0.0000 C   0  0  0  0  0  0  0  0  0  0  0  0
   -0.7223   -0.9347    0.0000 C   0  0  0  0  0  0  0  0  0  0  0  0
   -1.7725    0.6036    0.0000 C   0  0  0  0  0  0  0  0  0  0  0  0
   -0.9656    0.7751    0.0000 C   0  0  0  0  0  0  0  0  0  0  0  0
   -0.7106    1.5598    0.0000 C   0  0  0  0  0  0  0  0  0  0  0  0
   -1.2626    2.1729    0.0000 C   0  0  0  0  0  0  0  0  0  0  0  0
   -2.0696    2.0014    0.0000 C   0  0  0  0  0  0  0  0  0  0  0  0
   -2.3246    1.2167    0.0000 C   0  0  0  0  0  0  0  0  0  0  0  0
   -0.2983    0.2901    0.0000 C   0  0  0  0  0  0  0  0  0  0  0  0
    0.3691    0.7750    0.0000 C   0  0  0  0  0  0  0  0  0  0  0  0
    0.1143    1.5596    0.0000 N   0  0  0  0  0  0  0  0  0  0  0  0
   -0.2121   -0.5303    0.0000 C   0  0  0  0  0  0  0  0  0  0  0  0
    0.5413   -0.8660    0.0000 C   0  0  0  0  0  0  0  0  0  0  0  0
    1.2088   -0.3812    0.0000 C   0  0  0  0  0  0  0  0  0  0  0  0
    1.1228    0.4393    0.0000 C   0  0  0  0  0  0  0  0  0  0  0  0
    0.5993    2.2270    0.0000 C   0  0  0  0  0  0  0  0  0  0  0  0
    1.4198    2.1407    0.0000 C   0  0  0  0  0  0  0  0  0  0  0  0
    1.9047    2.8082    0.0000 C   0  0  0  0  0  0  0  0  0  0  0  0
    1.5693    3.5619    0.0000 C   0  0  0  0  0  0  0  0  0  0  0  0
    0.7488    3.6482    0.0000 C   0  0  0  0  0  0  0  0  0  0  0  0
    0.2638    2.9807    0.0000 C   0  0  0  0  0  0  0  0  0  0  0  0
   -3.6526    0.8186    0.0000 H   0  0  0  0  0  0  0  0  0  0  0  0
   -5.0208   -0.0665    0.0000 H   0  0  0  0  0  0  0  0  0  0  0  0
   -4.9864   -1.6871    0.0000 H   0  0  0  0  0  0  0  0  0  0  0  0
   -3.6368   -2.5204    0.0000 H   0  0  0  0  0  0  0  0  0  0  0  0
   -2.1200   -3.0204    0.0000 H   0  0  0  0  0  0  0  0  0  0  0  0
   -0.5213   -3.1533    0.0000 H   0  0  0  0  0  0  0  0  0  0  0  0
    0.4313   -2.0226    0.0000 H   0  0  0  0  0  0  0  0  0  0  0  0
   -0.6633   -0.1542    0.0000 H   0  0  0  0  0  0  0  0  0  0  0  0
   -1.4845   -0.1455    0.0000 H   0  0  0  0  0  0  0  0  0  0  0  0
   -1.1096    3.0079    0.0000 H   0  0  0  0  0  0  0  0  0  0  0  0
   -2.6394    2.6551    0.0000 H   0  0  0  0  0  0  0  0  0  0  0  0
   -3.1874    1.3359    0.0000 H   0  0  0  0  0  0  0  0  0  0  0  0
   -0.6242   -1.3361    0.0000 H   0  0  0  0  0  0  0  0  0  0  0  0
    1.9825   -0.7681    0.0000 H   0  0  0  0  0  0  0  0  0  0  0  0
    1.8770    0.8396    0.0000 H   0  0  0  0  0  0  0  0  0  0  0  0
    2.0238    1.5167    0.0000 H   0  0  0  0  0  0  0  0  0  0  0  0
    2.7680    2.8013    0.0000 H   0  0  0  0  0  0  0  0  0  0  0  0
    2.0734    4.2558    0.0000 H   0  0  0  0  0  0  0  0  0  0  0  0
    0.4749    4.4669    0.0000 H   0  0  0  0  0  0  0  0  0  0  0  0
   -0.5172    3.3554    0.0000 H   0  0  0  0  0  0  0  0  0  0  0  0
  1  2  2  0  0  0  0
  2  3  1  0  0  0  0
  3  4  2  0  0  0  0
  4  5  1  0  0  0  0
  5  6  2  0  0  0  0
  6  1  1  0  0  0  0
  7  8  2  0  0  0  0
  5  7  1  0  0  0  0
 10 11  2  0  0  0  0
 11 12  1  0  0  0  0
 12 13  2  0  0  0  0
  7 10  1  0  0  0  0
 13  8  1  0  0  0  0
  8  9  1  0  0  0  0
  6  9  1  0  0  0  0
 15 16  1  0  0  0  0
 16 17  2  0  0  0  0
 17 18  1  0  0  0  0
 18 19  2  0  0  0  0
 14 15  2  0  0  0  0
 19 14  1  0  0  0  0
 20 21  2  0  0  0  0
 15 20  1  0  0  0  0
 23 24  2  0  0  0  0
 24 25  1  0  0  0  0
 25 26  2  0  0  0  0
 20 23  1  0  0  0  0
 26 21  1  0  0  0  0
 21 22  1  0  0  0  0
 16 22  1  0  0  0  0
 22 27  1  0  0  0  0
 28 29  1  0  0  0  0
 29 30  2  0  0  0  0
 30 31  1  0  0  0  0
 31 32  2  0  0  0  0
 27 28  2  0  0  0  0
 32 27  1  0  0  0  0
  9 24  1  0  0  0  0
  1 33  1  0  0  0  0
  2 34  1  0  0  0  0
  3 35  1  0  0  0  0
  4 36  1  0  0  0  0
 10 37  1  0  0  0  0
 11 38  1  0  0  0  0
 12 39  1  0  0  0  0
 13 40  1  0  0  0  0
 14 41  1  0  0  0  0
 17 42  1  0  0  0  0
 18 43  1  0  0  0  0
 19 44  1  0  0  0  0
 23 45  1  0  0  0  0
 25 46  1  0  0  0  0
 26 47  1  0  0  0  0
 28 48  1  0  0  0  0
 29 49  1  0  0  0  0
 30 50  1  0  0  0  0
 31 51  1  0  0  0  0
 32 52  1  0  0  0  0
M  END
