@<TRIPOS>MOLECULE
lig
 52 58 0 0 0
SMALL
GASTEIGER

@<TRIPOS>ATOM
      1 C           1.9143   -1.7572    0.1470 C.ar    1  UNL11      -0.0372
      2 C           1.0455   -2.8861    0.1236 C.ar    1  UNL11      -0.0598
      3 C          -0.3654   -2.7181    0.2534 C.ar    1  UNL11      -0.0611
      4 C          -0.9567   -1.4288    0.3910 C.ar    1  UNL11      -0.0520
      5 C          -0.0693   -0.3042    0.3762 C.ar    1  UNL11       0.0079
      6 C           1.3419   -0.4466    0.2714 C.ar    1  UNL11       0.0549
      7 C          -0.3346    1.0593    0.3819 C.ar    1  UNL11       0.0079
      8 C           0.9236    1.7163    0.3028 C.ar    1  UNL11       0.0549
      9 N           1.9449    0.7912    0.2712 N.ar    1  UNL11      -0.3087
     10 C          -1.5775    1.7710    0.3853 C.ar    1  UNL11      -0.0520
     11 C          -1.5083    3.1916    0.2938 C.ar    1  UNL11      -0.0611
     12 C          -0.2595    3.8761    0.2094 C.ar    1  UNL11      -0.0598
     13 C           0.9660    3.1515    0.2126 C.ar    1  UNL11      -0.0372
     14 C           5.7198    4.4474    2.2899 C.ar    1  UNL11      -0.0520
     15 C           6.0068    3.4279    1.3269 C.ar    1  UNL11       0.0080
     16 C           7.3028    3.2291    0.7752 C.ar    1  UNL11       0.0549
     17 C           8.3722    4.1197    1.0595 C.ar    1  UNL11      -0.0372
     18 C           8.0911    5.1834    1.9641 C.ar    1  UNL11      -0.0598
     19 C           6.7978    5.3208    2.5925 C.ar    1  UNL11      -0.0611
     20 C           5.2193    2.4559    0.7437 C.ar    1  UNL11       0.0099
     21 C           6.0673    1.6108   -0.0104 C.ar    1  UNL11       0.0550
     22 N           7.3276    2.0850    0.0349 N.ar    1  UNL11      -0.3087
     23 C           3.8433    2.1854    0.8872 C.ar    1  UNL11      -0.0281
     24 C           3.3229    1.0578    0.1948 C.ar    1  UNL11       0.0479
     25 C           4.2137    0.2233   -0.5777 C.ar    1  UNL11      -0.0358
     26 C           5.6127    0.4592   -0.6848 C.ar    1  UNL11      -0.0353
     27 C           8.4050    1.5341   -0.5407 C.ar    1  UNL11       0.0472
     28 C           9.6603    1.6991    0.0331 C.ar    1  UNL11      -0.0378
     29 C          10.7779    1.1277   -0.5640 C.ar    1  UNL11      -0.0598
     30 C          10.6403    0.3914   -1.7349 C.ar    1  UNL11      -0.0616
     31 C           9.3850    0.2264   -2.3087 C.ar    1  UNL11      -0.0598
     32 C           8.2674    0.7978   -1.7116 C.ar    1  UNL11      -0.0378
     33 H           2.9246   -1.8780    0.0766 H       1  UNL11       0.0638
     34 H           1.4354   -3.8222    0.0132 H       1  UNL11       0.0618
     35 H          -0.9664   -3.5422    0.2474 H       1  UNL11       0.0618
     36 H          -1.9647   -1.3122    0.4952 H       1  UNL11       0.0624
     37 H          -2.4712    1.2835    0.4502 H       1  UNL11       0.0624
     38 H          -2.3731    3.7324    0.2886 H       1  UNL11       0.0618
     39 H          -0.2445    4.8941    0.1462 H       1  UNL11       0.0618
     40 H           1.8586    3.6414    0.1519 H       1  UNL11       0.0638
     41 H           4.8037    4.5401    2.7288 H       1  UNL11       0.0624
     42 H           9.2936    4.0036    0.6377 H       1  UNL11       0.0638
     43 H           8.8209    5.8647    2.1733 H       1  UNL11       0.0618
     44 H           6.6547    6.0667    3.2733 H       1  UNL11       0.0618
     45 H           3.2445    2.7753    1.4650 H       1  UNL11       0.0645
     46 H           3.8192   -0.5769   -1.0722 H       1  UNL11       0.0639
     47 H           6.2367   -0.1555   -1.2075 H       1  UNL11       0.0639
     48 H           9.7613    2.2394    0.8923 H       1  UNL11       0.0638
     49 H          11.6990    1.2487   -0.1430 H       1  UNL11       0.0618
     50 H          11.4604   -0.0279   -2.1731 H       1  UNL11       0.0618
     51 H           9.2840   -0.3139   -3.1679 H       1  UNL11       0.0618
     52 H           7.3463    0.6768   -2.1326 H       1  UNL11       0.0638
@<TRIPOS>BOND
     1     1     2   ar
     2     2     3   ar
     3     3     4   ar
     4     4     5   ar
     5     5     6   ar
     6     6     1   ar
     7     7     8   ar
     8     5     7   ar
     9    10    11   ar
    10    11    12   ar
    11    12    13   ar
    12     7    10   ar
    13    13     8   ar
    14     8     9   ar
    15     6     9   ar
    16    15    16   ar
    17    16    17   ar
    18    17    18   ar
    19    18    19   ar
    20    14    15   ar
    21    19    14   ar
    22    20    21   ar
    23    15    20   ar
    24    23    24   ar
    25    24    25   ar
    26    25    26   ar
    27    20    23   ar
    28    26    21   ar
    29    21    22   ar
    30    16    22   ar
    31    22    27    1
    32    28    29   ar
    33    29    30   ar
    34    30    31   ar
    35    31    32   ar
    36    27    28   ar
    37    32    27   ar
    38     9    24    1
    39     1    33    1
    40     2    34    1
    41     3    35    1
    42     4    36    1
    43    10    37    1
    44    11    38    1
    45    12    39    1
    46    13    40    1
    47    14    41    1
    48    17    42    1
    49    18    43    1
    50    19    44    1
    51    23    45    1
    52    25    46    1
    53    26    47    1
    54    28    48    1
    55    29    49    1
    56    30    50    1
    57    31    51    1
    58    32    52    1
