@<TRIPOS>MOLECULE
lig
 25 27 0 0 0
SMALL
GASTEIGER

@<TRIPOS>ATOM
      1 C           2.3396   -0.9424    0.0579 C.ar    1  UNL11      -0.0376
      2 C           1.7429   -2.2340    0.1993 C.ar    1  UNL11      -0.0598
      3 C           0.3285   -2.3984    0.3567 C.ar    1  UNL11      -0.0611
      4 C          -0.5574   -1.2786    0.3641 C.ar    1  UNL11      -0.0520
      5 C           0.0497    0.0044    0.1895 C.ar    1  UNL11       0.0076
      6 C           1.4574    0.1812    0.0778 C.ar    1  UNL11       0.0498
      7 N           1.7573    1.4935   -0.0623 N.ar    1  UNL11      -0.3429
      8 C          -0.5041    1.2558   -0.0338 C.ar    1  UNL11       0.0076
      9 C           0.5875    2.1635   -0.1306 C.ar    1  UNL11       0.0498
     10 C          -1.8532    1.6458   -0.2855 C.ar    1  UNL11      -0.0520
     11 C          -2.0515    3.0146   -0.6187 C.ar    1  UNL11      -0.0611
     12 C          -0.9652    3.9353   -0.6972 C.ar    1  UNL11      -0.0598
     13 C           0.3811    3.5405   -0.4325 C.ar    1  UNL11      -0.0376
     14 C           3.0490    2.0552   -0.1250 C.3     1  UNL11       0.0124
     15 H           3.3473   -0.8286   -0.0519 H       1  UNL11       0.0638
     16 H           2.3403   -3.0606    0.1877 H       1  UNL11       0.0618
     17 H          -0.0546   -3.3373    0.4661 H       1  UNL11       0.0618
     18 H          -1.5641   -1.3874    0.4868 H       1  UNL11       0.0624
     19 H          -2.6275    0.9843   -0.2300 H       1  UNL11       0.0624
     20 H          -2.9973    3.3468   -0.8068 H       1  UNL11       0.0618
     21 H          -1.1559    4.9049   -0.9499 H       1  UNL11       0.0618
     22 H           1.1525    4.2074   -0.4581 H       1  UNL11       0.0638
     23 H           3.5900    1.8258    0.7930 H       1  UNL11       0.0456
     24 H           2.9699    3.1363   -0.2396 H       1  UNL11       0.0456
     25 H           3.5857    1.6378   -0.9770 H       1  UNL11       0.0456
@<TRIPOS>BOND
     1     1     2   ar
     2     2     3   ar
     3     3     4   ar
     4     4     5   ar
     5     5     6   ar
     6     6     1   ar
     7     8     9   ar
     8     5     8   ar
     9    10    11   ar
    10    11    12   ar
    11    12    13   ar
    12     8    10   ar
    13    13     9   ar
    14     6     7   ar
    15     9     7   ar
    16     7    14    1
    17     1    15    1
    18     2    16    1
    19     3    17    1
    20     4    18    1
    21    10    19    1
    22    11    20    1
    23    12    21    1
    24    13    22    1
    25    14    23    1
    26    14    24    1
    27    14    25    1
